REMARK  7 active torsions:
REMARK  status: ('A' for Active; 'I' for Inactive)
REMARK    1  A    between atoms: C_2  and  O_23 
REMARK    2  A    between atoms: C_9  and  C_12 
REMARK    3  A    between atoms: C_10  and  C_11 
REMARK    4  A    between atoms: C_15  and  O_24 
REMARK    5  A    between atoms: C_25  and  O_24 
REMARK    6  A    between atoms: C_25  and  C_26 
REMARK    7  A    between atoms: C_26  and  N_27 
ROOT
HETATM    1  C           1      44.423   0.437  15.113  0.00  0.00     0.037 A 
HETATM    2  C           1      43.638   1.169  15.999  0.00  0.00     0.066 A 
HETATM    3  C           1      42.452   0.625  16.492  0.00  0.00     0.044 A 
HETATM    4  C           1      42.040  -0.660  16.107  0.00  0.00    -0.049 A 
HETATM    5  C           1      42.823  -1.391  15.195  0.00  0.00    -0.043 A 
HETATM    6  C           1      44.019  -0.836  14.714  0.00  0.00     0.011 A 
HETATM    7  C           1      40.735  -1.200  16.636  0.00  0.00     0.040 C 
HETATM    8  C           1      40.590  -2.711  16.457  0.00  0.00     0.015 C 
HETATM    9  C           1      40.972  -3.118  15.040  0.00  0.00     0.031 C 
HETATM   10  C           1      42.438  -2.786  14.766  0.00  0.00     0.057 C 
ENDROOT
BRANCH   2  11
HETATM   11  O           1      44.026   2.409  16.384  0.00  0.00    -0.361 OA
HETATM   12  H           1      44.867   2.611  15.940  0.00  0.00     0.217 HD
ENDBRANCH   2  11
BRANCH  10  13
HETATM   13  C           1      43.294  -3.764  15.508  0.00  0.00    -0.066 A 
HETATM   14  C           1      44.598  -4.015  15.082  0.00  0.00     0.007 A 
HETATM   15  C           1      45.395  -4.926  15.774  0.00  0.00     0.037 A 
HETATM   16  C           1      44.889  -5.586  16.893  0.00  0.00     0.065 A 
HETATM   17  C           1      43.584  -5.336  17.320  0.00  0.00     0.015 A 
HETATM   18  C           1      42.787  -4.424  16.628  0.00  0.00     0.031 A 
BRANCH  16  19
HETATM   19  O           1      45.663  -6.472  17.566  0.00  0.00    -0.350 OA
BRANCH  19  20
HETATM   20  C           1      44.965  -7.019  18.652  0.00  0.00     0.206 C 
BRANCH  20  21
HETATM   21  C           1      45.862  -8.009  19.385  0.00  0.00     0.299 C 
BRANCH  21  22
HETATM   22  N           1      45.146  -8.570  20.499  0.00  0.00     0.090 N 
HETATM   23  C           1      46.017  -9.515  21.192  0.00  0.00     0.272 C 
HETATM   24  C           1      46.995  -8.626  21.939  0.00  0.00     0.032 C 
HETATM   25  C           1      46.266  -7.300  22.121  0.00  0.00     0.032 C 
HETATM   26  C           1      44.912  -7.498  21.462  0.00  0.00     0.272 C 
ENDBRANCH  21  22
ENDBRANCH  20  21
ENDBRANCH  19  20
ENDBRANCH  16  19
ENDBRANCH  10  13
BRANCH   9  27
HETATM   27  C           1      40.763  -4.591  14.878  0.00  0.00    -0.053 A 
HETATM   28  C           1      39.865  -5.067  13.922  0.00  0.00     0.007 A 
HETATM   29  C           1      39.669  -6.439  13.770  0.00  0.00     0.001 A 
HETATM   30  C           1      40.371  -7.337  14.575  0.00  0.00     0.000 A 
HETATM   31  C           1      41.268  -6.861  15.532  0.00  0.00     0.001 A 
HETATM   32  C           1      41.463  -5.488  15.683  0.00  0.00     0.039 A 
ENDBRANCH   9  27
TORSDOF 7
